Version 4
SHEET 1 880 680
SYMBOL PowerProducts\\ADP2164-3.3 208 160 R0
SYMATTR InstName U1
